<?xml version="1.0" encoding="utf-8"?>
<!DOCTYPE population SYSTEM "http://www.matsim.org/files/dtd/population_v6.dtd">

<population>



<!-- ====================================================================== -->

	<person id="10-12-0">
		<plan selected="yes">
			<activity type="home" x="4499590.5" y="5359250.5" end_time="09:18:18" >
			</activity>
			<leg mode="pt">
			</leg>
			<activity type="work" x="4495707.0" y="5344803.5" end_time="17:19:38" >
			</activity>
			<leg mode="pt">
			</leg>
			<activity type="home" x="4499590.5" y="5359250.5" >
			</activity>
		</plan>

	</person>

<!-- ====================================================================== -->

	<person id="10-13-0">
		<plan selected="yes">
			<activity type="home" x="4499590.5" y="5359250.5" end_time="08:11:16" >
			</activity>
			<leg mode="pt">
			</leg>
			<activity type="work" x="4504581.0" y="5341783.5" end_time="16:12:36" >
			</activity>
			<leg mode="pt">
			</leg>
			<activity type="home" x="4499590.5" y="5359250.5" >
			</activity>
		</plan>

	</person>

<!-- ====================================================================== -->

	<person id="10-14-0">
		<plan selected="yes">
			<activity type="home" x="4499590.5" y="5359250.5" end_time="07:53:15" >
			</activity>
			<leg mode="pt">
			</leg>
			<activity type="work" x="4497936.0" y="5365234.5" end_time="15:54:35" >
			</activity>
			<leg mode="pt">
			</leg>
			<activity type="home" x="4499590.5" y="5359250.5" >
			</activity>
		</plan>

	</person>

<!-- ====================================================================== -->

	<person id="10-14-1">
		<plan selected="yes">
			<activity type="home" x="4499590.5" y="5359250.5" end_time="07:50:15" >
			</activity>
			<leg mode="pt">
			</leg>
			<activity type="work" x="4497936.0" y="5365234.5" end_time="15:51:35" >
			</activity>
			<leg mode="pt">
			</leg>
			<activity type="home" x="4499590.5" y="5359250.5" >
			</activity>
		</plan>

	</person>

<!-- ====================================================================== -->

	<person id="10-14-2">
		<plan selected="yes">
			<activity type="home" x="4499590.5" y="5359250.5" end_time="06:26:09" >
			</activity>
			<leg mode="pt">
			</leg>
			<activity type="work" x="4497936.0" y="5365234.5" end_time="14:27:29" >
			</activity>
			<leg mode="pt">
			</leg>
			<activity type="home" x="4499590.5" y="5359250.5" >
			</activity>
		</plan>

	</person>

<!-- ====================================================================== -->

	<person id="10-15-0">
		<plan selected="yes">
			<activity type="home" x="4499590.5" y="5359250.5" end_time="06:48:19" >
			</activity>
			<leg mode="pt">
			</leg>
			<activity type="work" x="4503791.5" y="5346582.5" end_time="14:49:39" >
			</activity>
			<leg mode="pt">
			</leg>
			<activity type="home" x="4499590.5" y="5359250.5" >
			</activity>
		</plan>

	</person>

<!-- ====================================================================== -->

	<person id="10-20-0">
		<plan selected="yes">
			<activity type="home" x="4499590.5" y="5359250.5" end_time="06:29:26" >
			</activity>
			<leg mode="pt">
			</leg>
			<activity type="work" x="4489838.5" y="5339512.0" end_time="14:30:46" >
			</activity>
			<leg mode="pt">
			</leg>
			<activity type="home" x="4499590.5" y="5359250.5" >
			</activity>
		</plan>

	</person>

<!-- ====================================================================== -->

	<person id="10-22-0">
		<plan selected="yes">
			<activity type="home" x="4499590.5" y="5359250.5" end_time="07:45:20" >
			</activity>
			<leg mode="pt">
			</leg>
			<activity type="work" x="4491178.5" y="5342258.5" end_time="15:46:40" >
			</activity>
			<leg mode="pt">
			</leg>
			<activity type="home" x="4499590.5" y="5359250.5" >
			</activity>
		</plan>

	</person>

<!-- ====================================================================== -->

	<person id="10-27-0">
		<plan selected="yes">
			<activity type="home" x="4499590.5" y="5359250.5" end_time="08:03:53" >
			</activity>
			<leg mode="pt">
			</leg>
			<activity type="work" x="4509783.0" y="5356190.0" end_time="16:05:13" >
			</activity>
			<leg mode="pt">
			</leg>
			<activity type="home" x="4499590.5" y="5359250.5" >
			</activity>
		</plan>

	</person>

<!-- ====================================================================== -->

	<person id="10-28-0">
		<plan selected="yes">
			<activity type="home" x="4499590.5" y="5359250.5" end_time="06:49:20" >
			</activity>
			<leg mode="pt">
			</leg>
			<activity type="work" x="4499477.0" y="5362687.5" end_time="14:50:40" >
			</activity>
			<leg mode="pt">
			</leg>
			<activity type="home" x="4499590.5" y="5359250.5" >
			</activity>
		</plan>

	</person>

<!-- ====================================================================== -->

	<person id="10-28-1">
		<plan selected="yes">
			<activity type="home" x="4499590.5" y="5359250.5" end_time="06:38:31" >
			</activity>
			<leg mode="pt">
			</leg>
			<activity type="work" x="4499477.0" y="5362687.5" end_time="14:39:51" >
			</activity>
			<leg mode="pt">
			</leg>
			<activity type="home" x="4499590.5" y="5359250.5" >
			</activity>
		</plan>

	</person>

<!-- ====================================================================== -->

	<person id="10-28-2">
		<plan selected="yes">
			<activity type="home" x="4499590.5" y="5359250.5" end_time="09:35:39" >
			</activity>
			<leg mode="pt">
			</leg>
			<activity type="work" x="4499477.0" y="5362687.5" end_time="17:36:59" >
			</activity>
			<leg mode="pt">
			</leg>
			<activity type="home" x="4499590.5" y="5359250.5" >
			</activity>
		</plan>

	</person>

<!-- ====================================================================== -->

	<person id="10-28-3">
		<plan selected="yes">
			<activity type="home" x="4499590.5" y="5359250.5" end_time="06:28:18" >
			</activity>
			<leg mode="pt">
			</leg>
			<activity type="work" x="4499477.0" y="5362687.5" end_time="14:29:38" >
			</activity>
			<leg mode="pt">
			</leg>
			<activity type="home" x="4499590.5" y="5359250.5" >
			</activity>
		</plan>

	</person>

<!-- ====================================================================== -->

	<person id="10-28-4">
		<plan selected="yes">
			<activity type="home" x="4499590.5" y="5359250.5" end_time="07:49:47" >
			</activity>
			<leg mode="pt">
			</leg>
			<activity type="work" x="4499477.0" y="5362687.5" end_time="15:51:07" >
			</activity>
			<leg mode="pt">
			</leg>
			<activity type="home" x="4499590.5" y="5359250.5" >
			</activity>
		</plan>

	</person>

<!-- ====================================================================== -->

	<person id="10-28-5">
		<plan selected="yes">
			<activity type="home" x="4499590.5" y="5359250.5" end_time="06:51:06" >
			</activity>
			<leg mode="pt">
			</leg>
			<activity type="work" x="4499477.0" y="5362687.5" end_time="14:52:26" >
			</activity>
			<leg mode="pt">
			</leg>
			<activity type="home" x="4499590.5" y="5359250.5" >
			</activity>
		</plan>

	</person>

<!-- ====================================================================== -->

	<person id="10-28-6">
		<plan selected="yes">
			<activity type="home" x="4499590.5" y="5359250.5" end_time="09:43:54" >
			</activity>
			<leg mode="pt">
			</leg>
			<activity type="work" x="4499477.0" y="5362687.5" end_time="17:45:14" >
			</activity>
			<leg mode="pt">
			</leg>
			<activity type="home" x="4499590.5" y="5359250.5" >
			</activity>
		</plan>

	</person>

<!-- ====================================================================== -->

	<person id="10-28-7">
		<plan selected="yes">
			<activity type="home" x="4499590.5" y="5359250.5" end_time="09:32:44" >
			</activity>
			<leg mode="pt">
			</leg>
			<activity type="work" x="4499477.0" y="5362687.5" end_time="17:34:04" >
			</activity>
			<leg mode="pt">
			</leg>
			<activity type="home" x="4499590.5" y="5359250.5" >
			</activity>
		</plan>

	</person>

<!-- ====================================================================== -->

	<person id="10-29-0">
		<plan selected="yes">
			<activity type="home" x="4499590.5" y="5359250.5" end_time="07:47:06" >
			</activity>
			<leg mode="pt">
			</leg>
			<activity type="work" x="4497776.0" y="5346844.0" end_time="15:48:26" >
			</activity>
			<leg mode="pt">
			</leg>
			<activity type="home" x="4499590.5" y="5359250.5" >
			</activity>
		</plan>

	</person>

<!-- ====================================================================== -->

	<person id="10-3-0">
		<plan selected="yes">
			<activity type="home" x="4499590.5" y="5359250.5" end_time="07:16:08" >
			</activity>
			<leg mode="pt">
			</leg>
			<activity type="work" x="4503278.5" y="5350340.5" end_time="15:17:28" >
			</activity>
			<leg mode="pt">
			</leg>
			<activity type="home" x="4499590.5" y="5359250.5" >
			</activity>
		</plan>

	</person>

<!-- ====================================================================== -->

	<person id="10-308-0">
		<plan selected="yes">
			<activity type="home" x="4499590.5" y="5359250.5" end_time="08:06:52" >
			</activity>
			<leg mode="pt">
			</leg>
			<activity type="work" x="4496678.5" y="5369763.0" end_time="16:08:12" >
			</activity>
			<leg mode="pt">
			</leg>
			<activity type="home" x="4499590.5" y="5359250.5" >
			</activity>
		</plan>

	</person>

<!-- ====================================================================== -->

	<person id="10-308-1">
		<plan selected="yes">
			<activity type="home" x="4499590.5" y="5359250.5" end_time="06:12:50" >
			</activity>
			<leg mode="pt">
			</leg>
			<activity type="work" x="4496678.5" y="5369763.0" end_time="14:14:10" >
			</activity>
			<leg mode="pt">
			</leg>
			<activity type="home" x="4499590.5" y="5359250.5" >
			</activity>
		</plan>

	</person>

<!-- ====================================================================== -->

	<person id="10-308-2">
		<plan selected="yes">
			<activity type="home" x="4499590.5" y="5359250.5" end_time="08:01:38" >
			</activity>
			<leg mode="pt">
			</leg>
			<activity type="work" x="4496678.5" y="5369763.0" end_time="16:02:58" >
			</activity>
			<leg mode="pt">
			</leg>
			<activity type="home" x="4499590.5" y="5359250.5" >
			</activity>
		</plan>

	</person>

<!-- ====================================================================== -->

	<person id="10-31-0">
		<plan selected="yes">
			<activity type="home" x="4499590.5" y="5359250.5" end_time="08:09:04" >
			</activity>
			<leg mode="pt">
			</leg>
			<activity type="work" x="4510174.0" y="5342884.0" end_time="16:10:24" >
			</activity>
			<leg mode="pt">
			</leg>
			<activity type="home" x="4499590.5" y="5359250.5" >
			</activity>
		</plan>

	</person>

<!-- ====================================================================== -->

	<person id="10-32-0">
		<plan selected="yes">
			<activity type="home" x="4499590.5" y="5359250.5" end_time="07:07:56" >
			</activity>
			<leg mode="pt">
			</leg>
			<activity type="work" x="4498550.0" y="5353614.5" end_time="15:09:16" >
			</activity>
			<leg mode="pt">
			</leg>
			<activity type="home" x="4499590.5" y="5359250.5" >
			</activity>
		</plan>

	</person>

<!-- ====================================================================== -->

	<person id="10-33-0">
		<plan selected="yes">
			<activity type="home" x="4499590.5" y="5359250.5" end_time="09:25:34" >
			</activity>
			<leg mode="pt">
			</leg>
			<activity type="work" x="4505875.0" y="5356669.0" end_time="17:26:54" >
			</activity>
			<leg mode="pt">
			</leg>
			<activity type="home" x="4499590.5" y="5359250.5" >
			</activity>
		</plan>

	</person>

<!-- ====================================================================== -->

	<person id="10-346-0">
		<plan selected="yes">
			<activity type="home" x="4499590.5" y="5359250.5" end_time="06:21:22" >
			</activity>
			<leg mode="pt">
			</leg>
			<activity type="work" x="4485942.0" y="5337060.0" end_time="14:22:42" >
			</activity>
			<leg mode="pt">
			</leg>
			<activity type="home" x="4499590.5" y="5359250.5" >
			</activity>
		</plan>

	</person>

<!-- ====================================================================== -->

	<person id="10-36-0">
		<plan selected="yes">
			<activity type="home" x="4499590.5" y="5359250.5" end_time="06:27:21" >
			</activity>
			<leg mode="pt">
			</leg>
			<activity type="work" x="4467859.0" y="5331594.0" end_time="14:28:41" >
			</activity>
			<leg mode="pt">
			</leg>
			<activity type="home" x="4499590.5" y="5359250.5" >
			</activity>
		</plan>

	</person>

<!-- ====================================================================== -->

	<person id="10-36-1">
		<plan selected="yes">
			<activity type="home" x="4499590.5" y="5359250.5" end_time="09:40:39" >
			</activity>
			<leg mode="pt">
			</leg>
			<activity type="work" x="4467859.0" y="5331594.0" end_time="17:41:59" >
			</activity>
			<leg mode="pt">
			</leg>
			<activity type="home" x="4499590.5" y="5359250.5" >
			</activity>
		</plan>

	</person>

<!-- ====================================================================== -->

	<person id="10-36-2">
		<plan selected="yes">
			<activity type="home" x="4499590.5" y="5359250.5" end_time="07:08:09" >
			</activity>
			<leg mode="pt">
			</leg>
			<activity type="work" x="4467859.0" y="5331594.0" end_time="15:09:29" >
			</activity>
			<leg mode="pt">
			</leg>
			<activity type="home" x="4499590.5" y="5359250.5" >
			</activity>
		</plan>

	</person>

<!-- ====================================================================== -->

	<person id="10-36-3">
		<plan selected="yes">
			<activity type="home" x="4499590.5" y="5359250.5" end_time="06:46:26" >
			</activity>
			<leg mode="pt">
			</leg>
			<activity type="work" x="4467859.0" y="5331594.0" end_time="14:47:46" >
			</activity>
			<leg mode="pt">
			</leg>
			<activity type="home" x="4499590.5" y="5359250.5" >
			</activity>
		</plan>

	</person>

<!-- ====================================================================== -->

	<person id="10-375-0">
		<plan selected="yes">
			<activity type="home" x="4499590.5" y="5359250.5" end_time="07:14:17" >
			</activity>
			<leg mode="pt">
			</leg>
			<activity type="work" x="4481427.0" y="5362646.0" end_time="15:15:37" >
			</activity>
			<leg mode="pt">
			</leg>
			<activity type="home" x="4499590.5" y="5359250.5" >
			</activity>
		</plan>

	</person>

<!-- ====================================================================== -->

	<person id="10-40-0">
		<plan selected="yes">
			<activity type="home" x="4499590.5" y="5359250.5" end_time="09:24:33" >
			</activity>
			<leg mode="pt">
			</leg>
			<activity type="work" x="4484340.5" y="5357249.0" end_time="17:25:53" >
			</activity>
			<leg mode="pt">
			</leg>
			<activity type="home" x="4499590.5" y="5359250.5" >
			</activity>
		</plan>

	</person>

<!-- ====================================================================== -->

	<person id="10-40-1">
		<plan selected="yes">
			<activity type="home" x="4499590.5" y="5359250.5" end_time="08:37:46" >
			</activity>
			<leg mode="pt">
			</leg>
			<activity type="work" x="4484340.5" y="5357249.0" end_time="16:39:06" >
			</activity>
			<leg mode="pt">
			</leg>
			<activity type="home" x="4499590.5" y="5359250.5" >
			</activity>
		</plan>

	</person>

<!-- ====================================================================== -->

	<person id="10-5-0">
		<plan selected="yes">
			<activity type="home" x="4499590.5" y="5359250.5" end_time="09:48:34" >
			</activity>
			<leg mode="pt">
			</leg>
			<activity type="work" x="4511935.0" y="5347670.0" end_time="17:49:54" >
			</activity>
			<leg mode="pt">
			</leg>
			<activity type="home" x="4499590.5" y="5359250.5" >
			</activity>
		</plan>

	</person>

<!-- ====================================================================== -->

	<person id="10-50-0">
		<plan selected="yes">
			<activity type="home" x="4499590.5" y="5359250.5" end_time="09:16:37" >
			</activity>
			<leg mode="pt">
			</leg>
			<activity type="work" x="4485864.0" y="5343176.0" end_time="17:17:57" >
			</activity>
			<leg mode="pt">
			</leg>
			<activity type="home" x="4499590.5" y="5359250.5" >
			</activity>
		</plan>

	</person>

<!-- ====================================================================== -->

	<person id="10-53-0">
		<plan selected="yes">
			<activity type="home" x="4499590.5" y="5359250.5" end_time="07:44:34" >
			</activity>
			<leg mode="pt">
			</leg>
			<activity type="work" x="4487083.0" y="5345227.5" end_time="15:45:54" >
			</activity>
			<leg mode="pt">
			</leg>
			<activity type="home" x="4499590.5" y="5359250.5" >
			</activity>
		</plan>

	</person>

<!-- ====================================================================== -->

	<person id="10-6-0">
		<plan selected="yes">
			<activity type="home" x="4499590.5" y="5359250.5" end_time="06:52:19" >
			</activity>
			<leg mode="pt">
			</leg>
			<activity type="work" x="4511233.5" y="5348363.0" end_time="14:53:39" >
			</activity>
			<leg mode="pt">
			</leg>
			<activity type="home" x="4499590.5" y="5359250.5" >
			</activity>
		</plan>

	</person>

<!-- ====================================================================== -->

	<person id="10-68-0">
		<plan selected="yes">
			<activity type="home" x="4499590.5" y="5359250.5" end_time="07:27:38" >
			</activity>
			<leg mode="pt">
			</leg>
			<activity type="work" x="4488325.5" y="5355454.0" end_time="15:28:58" >
			</activity>
			<leg mode="pt">
			</leg>
			<activity type="home" x="4499590.5" y="5359250.5" >
			</activity>
		</plan>

	</person>

<!-- ====================================================================== -->

	<person id="10-68-1">
		<plan selected="yes">
			<activity type="home" x="4499590.5" y="5359250.5" end_time="06:07:09" >
			</activity>
			<leg mode="pt">
			</leg>
			<activity type="work" x="4488325.5" y="5355454.0" end_time="14:08:29" >
			</activity>
			<leg mode="pt">
			</leg>
			<activity type="home" x="4499590.5" y="5359250.5" >
			</activity>
		</plan>

	</person>

<!-- ====================================================================== -->

	<person id="10-69-0">
		<plan selected="yes">
			<activity type="home" x="4499590.5" y="5359250.5" end_time="06:50:28" >
			</activity>
			<leg mode="pt">
			</leg>
			<activity type="work" x="4488588.0" y="5348786.0" end_time="14:51:48" >
			</activity>
			<leg mode="pt">
			</leg>
			<activity type="home" x="4499590.5" y="5359250.5" >
			</activity>
		</plan>

	</person>

<!-- ====================================================================== -->

	<person id="10-70-0">
		<plan selected="yes">
			<activity type="home" x="4499590.5" y="5359250.5" end_time="06:25:32" >
			</activity>
			<leg mode="pt">
			</leg>
			<activity type="work" x="4475709.0" y="5343146.5" end_time="14:26:52" >
			</activity>
			<leg mode="pt">
			</leg>
			<activity type="home" x="4499590.5" y="5359250.5" >
			</activity>
		</plan>

	</person>

<!-- ====================================================================== -->

	<person id="10-8-0">
		<plan selected="yes">
			<activity type="home" x="4499590.5" y="5359250.5" end_time="07:36:11" >
			</activity>
			<leg mode="pt">
			</leg>
			<activity type="work" x="4493682.5" y="5351729.0" end_time="15:37:31" >
			</activity>
			<leg mode="pt">
			</leg>
			<activity type="home" x="4499590.5" y="5359250.5" >
			</activity>
		</plan>

	</person>

<!-- ====================================================================== -->

	<person id="10-8-1">
		<plan selected="yes">
			<activity type="home" x="4499590.5" y="5359250.5" end_time="07:21:53" >
			</activity>
			<leg mode="pt">
			</leg>
			<activity type="work" x="4493682.5" y="5351729.0" end_time="15:23:13" >
			</activity>
			<leg mode="pt">
			</leg>
			<activity type="home" x="4499590.5" y="5359250.5" >
			</activity>
		</plan>

	</person>

<!-- ====================================================================== -->

	<person id="10-8-10">
		<plan selected="yes">
			<activity type="home" x="4499590.5" y="5359250.5" end_time="08:21:40" >
			</activity>
			<leg mode="pt">
			</leg>
			<activity type="work" x="4493682.5" y="5351729.0" end_time="16:23:00" >
			</activity>
			<leg mode="pt">
			</leg>
			<activity type="home" x="4499590.5" y="5359250.5" >
			</activity>
		</plan>

	</person>

<!-- ====================================================================== -->

	<person id="10-8-11">
		<plan selected="yes">
			<activity type="home" x="4499590.5" y="5359250.5" end_time="09:44:05" >
			</activity>
			<leg mode="pt">
			</leg>
			<activity type="work" x="4493682.5" y="5351729.0" end_time="17:45:25" >
			</activity>
			<leg mode="pt">
			</leg>
			<activity type="home" x="4499590.5" y="5359250.5" >
			</activity>
		</plan>

	</person>

<!-- ====================================================================== -->

	<person id="10-8-12">
		<plan selected="yes">
			<activity type="home" x="4499590.5" y="5359250.5" end_time="08:40:11" >
			</activity>
			<leg mode="pt">
			</leg>
			<activity type="work" x="4493682.5" y="5351729.0" end_time="16:41:31" >
			</activity>
			<leg mode="pt">
			</leg>
			<activity type="home" x="4499590.5" y="5359250.5" >
			</activity>
		</plan>

	</person>

<!-- ====================================================================== -->

	<person id="10-8-13">
		<plan selected="yes">
			<activity type="home" x="4499590.5" y="5359250.5" end_time="08:56:31" >
			</activity>
			<leg mode="pt">
			</leg>
			<activity type="work" x="4493682.5" y="5351729.0" end_time="16:57:51" >
			</activity>
			<leg mode="pt">
			</leg>
			<activity type="home" x="4499590.5" y="5359250.5" >
			</activity>
		</plan>

	</person>

<!-- ====================================================================== -->

	<person id="10-8-14">
		<plan selected="yes">
			<activity type="home" x="4499590.5" y="5359250.5" end_time="08:38:57" >
			</activity>
			<leg mode="pt">
			</leg>
			<activity type="work" x="4493682.5" y="5351729.0" end_time="16:40:17" >
			</activity>
			<leg mode="pt">
			</leg>
			<activity type="home" x="4499590.5" y="5359250.5" >
			</activity>
		</plan>

	</person>

<!-- ====================================================================== -->

	<person id="10-8-15">
		<plan selected="yes">
			<activity type="home" x="4499590.5" y="5359250.5" end_time="08:20:44" >
			</activity>
			<leg mode="pt">
			</leg>
			<activity type="work" x="4493682.5" y="5351729.0" end_time="16:22:04" >
			</activity>
			<leg mode="pt">
			</leg>
			<activity type="home" x="4499590.5" y="5359250.5" >
			</activity>
		</plan>

	</person>

<!-- ====================================================================== -->

	<person id="10-8-16">
		<plan selected="yes">
			<activity type="home" x="4499590.5" y="5359250.5" end_time="09:25:04" >
			</activity>
			<leg mode="pt">
			</leg>
			<activity type="work" x="4493682.5" y="5351729.0" end_time="17:26:24" >
			</activity>
			<leg mode="pt">
			</leg>
			<activity type="home" x="4499590.5" y="5359250.5" >
			</activity>
		</plan>

	</person>

<!-- ====================================================================== -->

	<person id="10-8-17">
		<plan selected="yes">
			<activity type="home" x="4499590.5" y="5359250.5" end_time="07:13:09" >
			</activity>
			<leg mode="pt">
			</leg>
			<activity type="work" x="4493682.5" y="5351729.0" end_time="15:14:29" >
			</activity>
			<leg mode="pt">
			</leg>
			<activity type="home" x="4499590.5" y="5359250.5" >
			</activity>
		</plan>

	</person>

<!-- ====================================================================== -->

	<person id="10-8-18">
		<plan selected="yes">
			<activity type="home" x="4499590.5" y="5359250.5" end_time="07:09:56" >
			</activity>
			<leg mode="pt">
			</leg>
			<activity type="work" x="4493682.5" y="5351729.0" end_time="15:11:16" >
			</activity>
			<leg mode="pt">
			</leg>
			<activity type="home" x="4499590.5" y="5359250.5" >
			</activity>
		</plan>

	</person>

<!-- ====================================================================== -->

	<person id="10-8-19">
		<plan selected="yes">
			<activity type="home" x="4499590.5" y="5359250.5" end_time="08:28:27" >
			</activity>
			<leg mode="pt">
			</leg>
			<activity type="work" x="4493682.5" y="5351729.0" end_time="16:29:47" >
			</activity>
			<leg mode="pt">
			</leg>
			<activity type="home" x="4499590.5" y="5359250.5" >
			</activity>
		</plan>

	</person>

<!-- ====================================================================== -->

	<person id="10-8-2">
		<plan selected="yes">
			<activity type="home" x="4499590.5" y="5359250.5" end_time="07:55:13" >
			</activity>
			<leg mode="pt">
			</leg>
			<activity type="work" x="4493682.5" y="5351729.0" end_time="15:56:33" >
			</activity>
			<leg mode="pt">
			</leg>
			<activity type="home" x="4499590.5" y="5359250.5" >
			</activity>
		</plan>

	</person>

<!-- ====================================================================== -->

	<person id="10-8-20">
		<plan selected="yes">
			<activity type="home" x="4499590.5" y="5359250.5" end_time="07:22:51" >
			</activity>
			<leg mode="pt">
			</leg>
			<activity type="work" x="4493682.5" y="5351729.0" end_time="15:24:11" >
			</activity>
			<leg mode="pt">
			</leg>
			<activity type="home" x="4499590.5" y="5359250.5" >
			</activity>
		</plan>

	</person>

<!-- ====================================================================== -->

	<person id="10-8-21">
		<plan selected="yes">
			<activity type="home" x="4499590.5" y="5359250.5" end_time="08:43:14" >
			</activity>
			<leg mode="pt">
			</leg>
			<activity type="work" x="4493682.5" y="5351729.0" end_time="16:44:34" >
			</activity>
			<leg mode="pt">
			</leg>
			<activity type="home" x="4499590.5" y="5359250.5" >
			</activity>
		</plan>

	</person>

<!-- ====================================================================== -->

	<person id="10-8-22">
		<plan selected="yes">
			<activity type="home" x="4499590.5" y="5359250.5" end_time="06:36:50" >
			</activity>
			<leg mode="pt">
			</leg>
			<activity type="work" x="4493682.5" y="5351729.0" end_time="14:38:10" >
			</activity>
			<leg mode="pt">
			</leg>
			<activity type="home" x="4499590.5" y="5359250.5" >
			</activity>
		</plan>

	</person>

<!-- ====================================================================== -->

	<person id="10-8-3">
		<plan selected="yes">
			<activity type="home" x="4499590.5" y="5359250.5" end_time="09:53:25" >
			</activity>
			<leg mode="pt">
			</leg>
			<activity type="work" x="4493682.5" y="5351729.0" end_time="17:54:45" >
			</activity>
			<leg mode="pt">
			</leg>
			<activity type="home" x="4499590.5" y="5359250.5" >
			</activity>
		</plan>

	</person>

<!-- ====================================================================== -->

	<person id="10-8-4">
		<plan selected="yes">
			<activity type="home" x="4499590.5" y="5359250.5" end_time="08:39:22" >
			</activity>
			<leg mode="pt">
			</leg>
			<activity type="work" x="4493682.5" y="5351729.0" end_time="16:40:42" >
			</activity>
			<leg mode="pt">
			</leg>
			<activity type="home" x="4499590.5" y="5359250.5" >
			</activity>
		</plan>

	</person>

<!-- ====================================================================== -->

	<person id="10-8-5">
		<plan selected="yes">
			<activity type="home" x="4499590.5" y="5359250.5" end_time="08:09:46" >
			</activity>
			<leg mode="pt">
			</leg>
			<activity type="work" x="4493682.5" y="5351729.0" end_time="16:11:06" >
			</activity>
			<leg mode="pt">
			</leg>
			<activity type="home" x="4499590.5" y="5359250.5" >
			</activity>
		</plan>

	</person>

<!-- ====================================================================== -->

	<person id="10-8-6">
		<plan selected="yes">
			<activity type="home" x="4499590.5" y="5359250.5" end_time="09:18:29" >
			</activity>
			<leg mode="pt">
			</leg>
			<activity type="work" x="4493682.5" y="5351729.0" end_time="17:19:49" >
			</activity>
			<leg mode="pt">
			</leg>
			<activity type="home" x="4499590.5" y="5359250.5" >
			</activity>
		</plan>

	</person>

<!-- ====================================================================== -->

	<person id="10-8-7">
		<plan selected="yes">
			<activity type="home" x="4499590.5" y="5359250.5" end_time="07:24:49" >
			</activity>
			<leg mode="pt">
			</leg>
			<activity type="work" x="4493682.5" y="5351729.0" end_time="15:26:09" >
			</activity>
			<leg mode="pt">
			</leg>
			<activity type="home" x="4499590.5" y="5359250.5" >
			</activity>
		</plan>

	</person>

<!-- ====================================================================== -->

	<person id="10-8-8">
		<plan selected="yes">
			<activity type="home" x="4499590.5" y="5359250.5" end_time="07:52:22" >
			</activity>
			<leg mode="pt">
			</leg>
			<activity type="work" x="4493682.5" y="5351729.0" end_time="15:53:42" >
			</activity>
			<leg mode="pt">
			</leg>
			<activity type="home" x="4499590.5" y="5359250.5" >
			</activity>
		</plan>

	</person>

<!-- ====================================================================== -->

	<person id="10-8-9">
		<plan selected="yes">
			<activity type="home" x="4499590.5" y="5359250.5" end_time="07:02:25" >
			</activity>
			<leg mode="pt">
			</leg>
			<activity type="work" x="4493682.5" y="5351729.0" end_time="15:03:45" >
			</activity>
			<leg mode="pt">
			</leg>
			<activity type="home" x="4499590.5" y="5359250.5" >
			</activity>
		</plan>

	</person>

<!-- ====================================================================== -->

	<person id="12-10-0">
		<plan selected="yes">
			<activity type="home" x="4495707.0" y="5344803.5" end_time="06:50:55" >
			</activity>
			<leg mode="pt">
			</leg>
			<activity type="work" x="4499590.5" y="5359250.5" end_time="14:52:15" >
			</activity>
			<leg mode="pt">
			</leg>
			<activity type="home" x="4495707.0" y="5344803.5" >
			</activity>
		</plan>

	</person>
