<vehicleDefinitions
        xmlns="http://www.matsim.org/files/dtd"
        xmlns:xsi="http://www.w3.org/2001/XMLSchema-instance"
        xsi:schemaLocation="http://www.matsim.org/files/dtd http://www.matsim.org/files/dtd/vehicleDefinitions_v1.0.xsd">
    <vehicleType id="car">
        <description>Small Train</description>
        <capacity>
            <seats persons="300"/>
            <standingRoom persons="500"/>
        </capacity>
<!--        <length meter="50"/>-->
<!--        <width meter="2.55"/>-->
        <accessTime secondsPerPerson="1.0"/>
        <egressTime secondsPerPerson="1.0"/>
        <doorOperation mode="serial"/>
        <passengerCarEquivalents pce="1.0"/>
    </vehicleType>
    <vehicle id="RE1-HIN-1" type="car"/>
    <vehicle id="RE1-HIN" type="car"/>
    <vehicle id="S6-1" type="car"/>
    <vehicle id="S6-2" type="car"/>
    <vehicle id="S6-3" type="car"/>
    <vehicle id="S6-4" type="car"/>
    <vehicle id="S6-5" type="car"/>
    <vehicle id="S8-1" type="car"/>
    <vehicle id="S8-2" type="car"/>
    <vehicle id="S8-3" type="car"/>
    <vehicle id="S8-4" type="car"/>
<!--    <vehicle id="S8-5" type="car"/>-->
<!--    <vehicle id="RE1-RUCK-1" type="car"/>-->

</vehicleDefinitions>